powerfulcases/cases/matpower/case6470rte/case6470rte.raw
0, 100, 33, 0, 0, 60  / 28-Jan-2026 21:53:00 - MATPOWER 8.1


     1, 'BUS 1       ',        45, 1,    1,    1, 1, 0.976135388, -12.9925873,    1, 0.888889,    1, 0.888889
     2, 'BUS 2       ',        63, 1,    1,    1, 1,  1.02642799, -12.9259868, 1.06349, 0.936508, 1.06349, 0.936508
     3, 'BUS 3       ',        63, 1,    1,    1, 1,  1.00503432, -13.9209286, 1.07937, 0.952381, 1.07937, 0.952381
     4, 'BUS 4       ',        90, 1,    1,    1, 1,  1.04420421, -12.9960661, 1.08889, 0.933333, 1.08889, 0.933333
     5, 'BUS 5       ',        63, 1,    1,    1, 1,  1.01635584, -44.9251304, 1.06349, 0.952381, 1.06349, 0.952381
     6, 'BUS 6       ',        63, 1,    1,    1, 1,  1.03382845, -21.1593539, 1.07937, 0.920635, 1.07937, 0.920635
     7, 'BUS 7       ',        63, 1,    1,    1, 1,  1.04376781, -23.4151063, 1.07937, 0.920635, 1.07937, 0.920635
     8, 'BUS 8       ',       225, 1,    1,    1, 1,  1.06137161, -9.10918487, 1.08889, 0.888889, 1.08889, 0.888889
     9, 'BUS 9       ',        63, 1,    1,    1, 1,  1.04218491,  -19.692127, 1.06349, 0.936508, 1.06349, 0.936508
    10, 'BUS 10      ',        90, 1,    1,    1, 1,  1.03392009, -13.0599476, 1.07778, 0.922222, 1.07778, 0.922222
    11, 'BUS 11      ',        90, 1,    1,    1, 1,  1.03391987, -13.0599451, 1.07778, 0.922222, 1.07778, 0.922222
    12, 'BUS 12      ',        63, 1,    1,    1, 1,  1.01220507,  1.47719466, 1.07937, 0.952381, 1.07937, 0.952381
    13, 'BUS 13      ',       380, 1,    1,    1, 1,  1.05892219, -5.04317166, 1.10263, 1.05526, 1.10263, 1.05526
    14, 'BUS 14      ',        90, 1,    1,    1, 1,  1.06276649, -23.9178904, 1.07778, 0.977778, 1.07778, 0.977778
    15, 'BUS 15      ',        63, 1,    1,    1, 1,  1.00803207, -27.2648742, 1.07937, 0.920635, 1.07937, 0.920635
    16, 'BUS 16      ',        63, 1,    1,    1, 1,  1.02765775, -30.1822336, 1.07937, 0.920635, 1.07937, 0.920635
    17, 'BUS 17      ',        90, 1,    1,    1, 1,  1.04678283, -29.1807443, 1.06667, 0.977778, 1.06667, 0.977778
    18, 'BUS 18      ',        45, 1,    1,    1, 1, 0.943683152, -6.22055638,    1, 0.888889,    1, 0.888889
    19, 'BUS 19      ',        63, 1,    1,    1, 1,  1.01840923, -21.4790742, 1.06349, 0.936508, 1.06349, 0.936508
    20, 'BUS 20      ',        45, 1,    1,    1, 1, 0.944675623, -6.25041794,    1, 0.888889,    1, 0.888889
    21, 'BUS 21      ',        90, 1,    1,    1, 1,  1.04078363,  -20.286675, 1.06667, 0.977778, 1.06667, 0.977778
    22, 'BUS 22      ',        63, 1,    1,    1, 1,  1.01396605, -11.0956105, 1.07937, 0.952381, 1.07937, 0.952381
    23, 'BUS 23      ',        63, 1,    1,    1, 1,  1.01094639, -10.1391831, 1.06349, 0.936508, 1.06349, 0.936508
    24, 'BUS 24      ',        90, 1,    1,    1, 1,  1.04095062, -12.3196454, 1.11111, 0.955556, 1.11111, 0.955556
    25, 'BUS 25      ',        90, 1,    1,    1, 1,  1.07238186, -8.42135007,  1.1, 0.944444,  1.1, 0.944444
    26, 'BUS 26      ',        90, 1,    1,    1, 1,  1.02301673, -21.9672988, 1.06667, 0.977778, 1.06667, 0.977778
    27, 'BUS 27      ',       225, 1,    1,    1, 1,  1.06710622, -17.5980982, 1.08444, 1.00444, 1.08444, 1.00444
    28, 'BUS 28      ',        63, 1,    1,    1, 1,  1.02281412,  -19.085163, 1.07937, 0.952381, 1.07937, 0.952381
    29, 'BUS 29      ',        63, 1,    1,    1, 1,  1.00764278, -24.8565374, 1.06349, 0.968254, 1.06349, 0.968254
    30, 'BUS 30      ',        90, 1,    1,    1, 1,  1.03465163, -13.1714919, 1.08889, 0.933333, 1.08889, 0.933333
    31, 'BUS 31      ',        63, 1,    1,    1, 1,  1.02725645, -9.77254236, 1.06349, 0.936508, 1.06349, 0.936508
    32, 'BUS 32      ',       150, 1,    1,    1, 1,  1.03648765, -4.82385724, 1.10667,  0.9, 1.10667,  0.9
    33, 'BUS 33      ',       225, 1,    1,    1, 1,  1.05453305, -7.49488734, 1.08889, 0.933333, 1.08889, 0.933333
    34, 'BUS 34      ',       225, 1,    1,    1, 1,  1.05382682, -6.60576514, 1.08889, 0.933333, 1.08889, 0.933333
    35, 'BUS 35      ',       380, 1,    1,    1, 1,  1.07407438, -6.15731397, 1.10526, 1.03947, 1.10526, 1.03947
    36, 'BUS 36      ',       380, 1,    1,    1, 1,  1.07981196,  -5.3255914, 1.10526, 1.03947, 1.10526, 1.03947
    37, 'BUS 37      ',        63, 1,    1,    1, 1,  1.00780047, -25.6001306, 1.07937, 0.920635, 1.07937, 0.920635
    38, 'BUS 38      ',        63, 1,    1,    1, 1,  1.05045129, -12.5625758, 1.09524, 0.936508, 1.09524, 0.936508
    39, 'BUS 39      ',        90, 1,    1,    1, 1,  1.03860534, -32.8237834, 1.07778, 0.977778, 1.07778, 0.977778
    40, 'BUS 40      ',        90, 1,    1,    1, 1,  1.05927182, -22.0803285, 1.07778, 0.977778, 1.07778, 0.977778
    41, 'BUS 41      ',       225, 1,    1,    1, 1,  1.07994118, -18.1118321, 1.08889, 1.00444, 1.08889, 1.00444
    42, 'BUS 42      ',        63, 1,    1,    1, 1,  1.12051301,  5.61827836, 1.13259, 0.952381, 1.13259, 0.952381
    43, 'BUS 43      ',        90, 1,    1,    1, 1,  1.04594618, -18.1350668, 1.07778, 0.977778, 1.07778, 0.977778
    44, 'BUS 44      ',        63, 1,    1,    1, 1,  1.02400675, -45.3164455, 1.06349, 0.952381, 1.06349, 0.952381
    45, 'BUS 45      ',        90, 1,    1,    1, 1,  1.00835368, -29.0294852, 1.06667, 0.977778, 1.06667, 0.977778
    46, 'BUS 46      ',        63, 1,    1,    1, 1,    1.012435, -16.8917768, 1.06349, 0.936508, 1.06349, 0.936508
    47, 'BUS 47      ',        63, 2,    1,    1, 1,       1.012,  -14.645547, 1.06349, 0.936508, 1.06349, 0.936508
    48, 'BUS 48      ',        90, 1,    1,    1, 1,  1.03402321, -13.0587867, 1.07778, 0.922222, 1.07778, 0.922222
    49, 'BUS 49      ',        63, 1,    1,    1, 1,  1.01826244, -16.2568862, 1.06349, 0.936508, 1.06349, 0.936508
    50, 'BUS 50      ',        63, 1,    1,    1, 1,  1.06347625, -15.8365877, 1.07012, 0.936508, 1.07012, 0.936508
    51, 'BUS 51      ',       225, 1,    1,    1, 1,  1.05402062, -11.3483204, 1.08889, 0.933333, 1.08889, 0.933333
    52, 'BUS 52      ',        90, 1,    1,    1, 1,  1.03592726, -30.7614811, 1.06667, 0.977778, 1.06667, 0.977778
    53, 'BUS 53      ',        63, 1,    1,    1, 1,  1.01729743, -17.5396193, 1.04762, 0.952381, 1.04762, 0.952381
    54, 'BUS 54      ',        90, 1,    1,    1, 1,  1.03781665, -15.8046832, 1.06667, 0.977778, 1.06667, 0.977778
    55, 'BUS 55      ',       225, 1,    1,    1, 1,  1.06961297, -18.9138109, 1.08889, 1.00444, 1.08889, 1.00444
    56, 'BUS 56      ',       225, 1,    1,    1, 1,  1.07717063, -15.4534489, 1.08889, 1.00444, 1.08889, 1.00444
    57, 'BUS 57      ',        63, 2,    1,    1, 1,       1.051, -23.8130179, 1.07937, 0.920635, 1.07937, 0.920635
    58, 'BUS 58      ',       225, 1,    1,    1, 1,  1.06941541, -18.9307534, 1.08889, 1.00444, 1.08889, 1.00444
    59, 'BUS 59      ',        63, 1,    1,    1, 1,  1.01246439, -11.9419701, 1.07937, 0.952381, 1.07937, 0.952381
    60, 'BUS 60      ',        63, 1,    1,    1, 1,  1.02630951, -5.72230685, 1.07937, 0.952381, 1.07937, 0.952381
    61, 'BUS 61      ',        63, 1,    1,    1, 1,  1.03149101, -8.27970763, 1.07937, 0.952381, 1.07937, 0.952381
    62, 'BUS 62      ',        63, 1,    1,    1, 1,  1.01212852, -6.03185941, 1.07937, 0.952381, 1.07937, 0.952381
    63, 'BUS 63      ',        63, 1,    1,    1, 1,  1.01100284,  1.57582423, 1.07937, 0.952381, 1.07937, 0.952381
    64, 'BUS 64      ',       225, 1,    1,    1, 1,  1.07394793, -6.81249347, 1.08889, 0.888889, 1.08889, 0.888889
    65, 'BUS 65      ',        63, 1,    1,    1, 1,  1.04323714, -8.83232685, 1.07937, 0.952381, 1.07937, 0.952381
    66, 'BUS 66      ',        63, 1,    1,    1, 1,  1.02766848,  -25.721717, 1.06349, 0.936508, 1.06349, 0.936508
    67, 'BUS 67      ',        63, 1,    1,    1, 1,  1.04382543, -19.3568303, 1.07937, 0.920635, 1.07937, 0.920635
    68, 'BUS 68      ',        63, 1,    1,    1, 1,  1.01281042, -16.3819581, 1.06349, 0.936508, 1.06349, 0.936508
    69, 'BUS 69      ',        63, 1,    1,    1, 1,  1.04103403, -49.3963046, 1.06349, 0.952381, 1.06349, 0.952381
    70, 'BUS 70      ',        63, 1,    1,    1, 1,  1.01492751,  2.12856808, 1.07937, 0.952381, 1.07937, 0.952381
    71, 'BUS 71      ',        63, 1,    1,    1, 1,  1.02703162, -19.7214799, 1.04762, 0.952381, 1.04762, 0.952381
    72, 'BUS 72      ',       225, 1,    1,    1, 1,  1.08833147, -12.1292789, 1.09027, 1.00444, 1.09027, 1.00444
    73, 'BUS 73      ',       225, 1,    1,    1, 1,  1.08830871, -12.1298816, 1.09025, 1.00444, 1.09025, 1.00444
    74, 'BUS 74      ',       225, 1,    1,    1, 1,  1.07421562,  -6.6908321, 1.08889, 0.888889, 1.08889, 0.888889
    75, 'BUS 75      ',        90, 1,    1,    1, 1,  1.05912762, -15.2272137, 1.0673, 0.977778, 1.0673, 0.977778
    76, 'BUS 76      ',       225, 1,    1,    1, 1,  1.07654404,  4.81180688, 1.08923, 0.986667, 1.08923, 0.986667
    77, 'BUS 77      ',        63, 1,    1,    1, 1,  1.01721738, -16.1431001, 1.06349, 0.936508, 1.06349, 0.936508
    78, 'BUS 78      ',        63, 1,    1,    1, 1,  1.01713501, -24.7944396, 1.07937, 0.920635, 1.07937, 0.920635
    79, 'BUS 79      ',        63, 1,    1,    1, 1,   1.0233287, -15.8525121, 1.04762, 0.952381, 1.04762, 0.952381
    80, 'BUS 80      ',       225, 1,    1,    1, 1,  1.07788234, -15.7121296, 1.08889, 1.00444, 1.08889, 1.00444
    81, 'BUS 81      ',       225, 1,    1,    1, 1,  1.07789352,  -15.712247, 1.08889, 1.00444, 1.08889, 1.00444
    82, 'BUS 82      ',        63, 1,    1,    1, 1,  1.01680665, -17.7544069, 1.06349, 0.936508, 1.06349, 0.936508
    83, 'BUS 83      ',       225, 1,    1,    1, 1,  1.06117126, -18.1202089, 1.08889, 1.00444, 1.08889, 1.00444
    84, 'BUS 84      ',        63, 1,    1,    1, 1,  1.01460966, -12.8551684, 1.06349, 0.936508, 1.06349, 0.936508
    85, 'BUS 85      ',        63, 1,    1,    1, 1,  1.03363532, -18.6243809, 1.06349, 0.936508, 1.06349, 0.936508
    86, 'BUS 86      ',        90, 1,    1,    1, 1,  1.02064907, -38.6021117, 1.06667, 0.977778, 1.06667, 0.977778
    87, 'BUS 87      ',        63, 1,    1,    1, 1,   1.0187645,  1.31447041, 1.07937, 0.952381, 1.07937, 0.952381
    88, 'BUS 88      ',        63, 1,    1,    1, 1,  1.01592598, -21.6956546, 1.06349, 0.936508, 1.06349, 0.936508
    89, 'BUS 89      ',        90, 1,    1,    1, 1,   1.0379702, -20.8685881, 1.07778, 0.977778, 1.07778, 0.977778
    90, 'BUS 90      ',        45, 1,    1,    1, 1,  0.94224878, -7.00763458,    1, 0.888889,    1, 0.888889
    91, 'BUS 91      ',        45, 1,    1,    1, 1, 0.943074714, -6.30480653,    1, 0.888889,    1, 0.888889
    92, 'BUS 92      ',        63, 1,    1,    1, 1,  1.00978629, -20.3740289, 1.06349, 0.968254, 1.06349, 0.968254
    93, 'BUS 93      ',        45, 1,    1,    1, 1, 0.958656574, -8.71727433,    1, 0.888889,    1, 0.888889
    94, 'BUS 94      ',        90, 1,    1,    1, 1,  1.04379161, -19.7217298, 1.06667, 0.977778, 1.06667, 0.977778
    95, 'BUS 95      ',        90, 1,    1,    1, 1,   1.0312211, -30.4840468, 1.06667, 0.977778, 1.06667, 0.977778
    96, 'BUS 96      ',        63, 1,    1,    1, 1,  1.03788872, -11.0788409, 1.06349, 0.936508, 1.06349, 0.936508
    97, 'BUS 97      ',        63, 1,    1,    1, 1,  1.06437655, -25.7421539, 1.07937, 0.920635, 1.07937, 0.920635
    98, 'BUS 98      ',        63, 1,    1,    1, 1,  1.03837053, -15.4142215, 1.07937, 0.952381, 1.07937, 0.952381
    99, 'BUS 99      ',        63, 1,    1,    1, 1,  1.03969161, -7.84708686, 1.07937, 0.952381, 1.07937, 0.952381
   100, 'BUS 100     ',        63, 1,    1,    1, 1,  1.00974165, -16.7738896, 1.06349, 0.936508, 1.06349, 0.936508
   101, 'BUS 101     ',        63, 1,    1,    1, 1,   1.0068471, -13.2748505, 1.06349, 0.936508, 1.06349, 0.936508
   102, 'BUS 102     ',        63, 2,    1,    1, 1,       1.026, -20.4664045, 1.07937, 0.952381, 1.07937, 0.952381
   103, 'BUS 103     ',        63, 1,    1,    1, 1,  1.02700008, -6.46512627, 1.07937, 0.952381, 1.07937, 0.952381
   104, 'BUS 104     ',       225, 1,    1,    1, 1,  1.06764508, -3.66034483, 1.08889, 0.986667, 1.08889, 0.986667
   105, 'BUS 105     ',       225, 1,    1,    1, 1,  1.05574625, -6.19441787, 1.08889, 0.888889, 1.08889, 0.888889
   106, 'BUS 106     ',        90, 1,    1,    1, 1,   1.0549998, -10.3125909,  1.1, 0.944444,  1.1, 0.944444
   107, 'BUS 107     ',       225, 1,    1,    1, 1,  1.05344295, -27.9027225, 1.08444, 1.00889, 1.08444, 1.00889
   108, 'BUS 108     ',        90, 1,    1,    1, 1,  1.06089799, -15.8485362, 1.07778, 0.977778, 1.07778, 0.977778
   109, 'BUS 109     ',        63, 1,    1,    1, 1,  1.03797039, -14.4512355, 1.06349, 0.936508, 1.06349, 0.936508
   110, 'BUS 110     ',       225, 1,    1,    1, 1,  1.02483778, -10.3393883, 1.08889, 0.933333, 1.08889, 0.933333
   111, 'BUS 111     ',        63, 1,    1,    1, 1,  1.00464656, -23.2310562, 1.06349, 0.968254, 1.06349, 0.968254
   112, 'BUS 112     ',        63, 1,    1,    1, 1,  1.03104172, -19.4769398, 1.04762, 0.952381, 1.04762, 0.952381
   113, 'BUS 113     ',       225, 1,    1,    1, 1,  1.07137239, -16.7086828, 1.08889, 1.00444, 1.08889, 1.00444
   114, 'BUS 114     ',        63, 1,    1,    1, 1,  1.04131933,  -14.515794, 1.06349, 0.936508, 1.06349, 0.936508
   115, 'BUS 115     ',       380, 1,    1,    1, 1,  1.05906621,  -5.0444808, 1.10526, 1.05263, 1.10526, 1.05263
   116, 'BUS 116     ',       380, 1,    1,    1, 1,  1.05893137, -5.04325504, 1.10526, 1.05263, 1.10526, 1.05263
   117, 'BUS 117     ',        63, 1,    1,    1, 1,  1.01177151, -18.5010626, 1.07937, 0.952381, 1.07937, 0.952381
   118, 'BUS 118     ',        90, 1,    1,    1, 1,  1.06140338, -14.9568759, 1.06958, 0.977778, 1.06958, 0.977778
   119, 'BUS 119     ',        63, 1,    1,    1, 1,  1.02092431, -10.2131994, 1.06349, 0.936508, 1.06349, 0.936508
   120, 'BUS 120     ',        63, 1,    1,    1, 1,  1.01794152, -9.19529036, 1.06349, 0.936508, 1.06349, 0.936508
   121, 'BUS 121     ',        63, 1,    1,    1, 1,  1.02798357,  -24.462783, 1.07937, 0.920635, 1.07937, 0.920635
   122, 'BUS 122     ',        63, 2,    1,    1, 1,       1.026, -7.07848147, 1.07937, 0.952381, 1.07937, 0.952381
   123, 'BUS 123     ',        63, 1,    1,    1, 1,  1.02435037, -7.22045701, 1.07937, 0.952381, 1.07937, 0.952381
   124, 'BUS 124     ',        90, 1,    1,    1, 1,  1.03707848, -25.0946664, 1.06667, 0.977778, 1.06667, 0.977778
   125, 'BUS 125     ',        63, 1,    1,    1, 1,  1.03689507,  -9.8309822, 1.07937, 0.952381, 1.07937, 0.952381
   126, 'BUS 126     ',        63, 1,    1,    1, 1,  1.02949319, -19.3051119, 1.06349, 0.936508, 1.06349, 0.936508
   127, 'BUS 127     ',        63, 1,    1,    1, 1,  1.03397146, -19.3369693, 1.04762, 0.952381, 1.04762, 0.952381
   128, 'BUS 128     ',        63, 1,    1,    1, 1,  1.02461147, -12.4220533, 1.06349, 0.968254, 1.06349, 0.968254
   129, 'BUS 129     ',        63, 1,    1,    1, 1,  1.02325264, -10.6875588, 1.06349, 0.968254, 1.06349, 0.968254
   130, 'BUS 130     ',       225, 1,    1,    1, 1,  1.04822415, -10.3292151, 1.08444, 1.00889, 1.08444, 1.00889
   131, 'BUS 131     ',       225, 1,    1,    1, 1,  1.04604879, -19.0300309, 1.08444, 1.00889, 1.08444, 1.00889
   132, 'BUS 132     ',        90, 2,    1,    1, 1,       1.065, -22.1212095, 1.07778, 0.922222, 1.07778, 0.922222
   133, 'BUS 133     ',        63, 1,    1,    1, 1,  1.01877743, -19.1629109, 1.04762, 0.952381, 1.04762, 0.952381
   134, 'BUS 134     ',       225, 1,    1,    1, 1,  1.06237023, -16.5704975, 1.08889, 1.00444, 1.08889, 1.00444
   135, 'BUS 135     ',       225, 1,    1,    1, 1,  1.07000739, -18.7730983, 1.08889, 1.00444, 1.08889, 1.00444
   136, 'BUS 136     ',        90, 1,    1,    1, 1,  1.04427034, -29.9688968, 1.07778, 0.977778, 1.07778, 0.977778
   137, 'BUS 137     ',        63, 2,    1,    1, 1,       1.032, -17.2080894, 1.06349, 0.968254, 1.06349, 0.968254
   138, 'BUS 138     ',       150, 1,    1,    1, 1,  1.03902059, -14.7661854, 1.08, 0.966667, 1.08, 0.966667
   139, 'BUS 139     ',        63, 1,    1,    1, 1,  1.05095521, -19.5598296, 1.07937, 0.920635, 1.07937, 0.920635
   140, 'BUS 140     ',       225, 1,    1,    1, 1,  1.08235205, -16.4504327, 1.08889,    1, 1.08889,    1
   141, 'BUS 141     ',       380, 1,    1,    1, 1,  1.08918012, -13.1901619, 1.10526, 1.05263, 1.10526, 1.05263
   142, 'BUS 142     ',        63, 1,    1,    1, 1,  1.01633355, -11.5272029, 1.07937, 0.952381, 1.07937, 0.952381
   143, 'BUS 143     ',       225, 1,    1,    1, 1,  1.06497066, -7.36988358, 1.08889, 0.986667, 1.08889, 0.986667
   144, 'BUS 144     ',        90, 1,    1,    1, 1,  1.04710595, -10.8088189, 1.11111, 0.955556, 1.11111, 0.955556
   145, 'BUS 145     ',       225, 1,    1,    1, 1,  1.07498756, -6.54824762, 1.08889, 0.968889, 1.08889, 0.968889
   146, 'BUS 146     ',       380, 1,    1,    1, 1,    1.082892, -4.02229346, 1.10526,    1, 1.10526,    1
   147, 'BUS 147     ',        63, 1,    1,    1, 1,  1.03903903, -15.2683972, 1.06349, 0.936508, 1.06349, 0.936508
   148, 'BUS 148     ',        63, 1,    1,    1, 1,  1.02578801, -13.8079977, 1.06349, 0.936508, 1.06349, 0.936508
   149, 'BUS 149     ',        90, 1,    1,    1, 1,  1.04300695, -30.1906078, 1.06667, 0.977778, 1.06667, 0.977778
   150, 'BUS 150     ',        63, 1,    1,    1, 1,  1.02466218, -10.2265779, 1.06349, 0.936508, 1.06349, 0.936508
   151, 'BUS 151     ',        63, 1,    1,    1, 1, 0.988179896,  -26.921708, 1.06349, 0.968254, 1.06349, 0.968254
   152, 'BUS 152     ',        63, 1,    1,    1, 1, 0.988026042, -25.6502451, 1.06349, 0.968254, 1.06349, 0.968254
   153, 'BUS 153     ',        63, 1,    1,    1, 1,  1.03360067, -13.5219696, 1.06349, 0.936508, 1.06349, 0.936508
   154, 'BUS 154     ',       225, 1,    1,    1, 1,  1.06485541, -9.84131996, 1.08889, 0.933333, 1.08889, 0.933333
   155, 'BUS 155     ',        63, 2,    1,    1, 1, 0.973059153, -24.3963974, 1.07937, 0.920635, 1.07937, 0.920635
   156, 'BUS 156     ',        63, 1,    1,    1, 1, 0.988140868, -26.9246626, 1.06349, 0.968254, 1.06349, 0.968254
   157, 'BUS 157     ',        45, 1,    1,    1, 1, 0.898621813, -8.80299203,    1, 0.888889,    1, 0.888889
   158, 'BUS 158     ',        45, 2,    1,    1, 1,       0.947, -10.3100044,    1, 0.888889,    1, 0.888889
   159, 'BUS 159     ',        63, 1,    1,    1, 1,  1.00924769, -12.5289984, 1.06349, 0.936508, 1.06349, 0.936508
   160, 'BUS 160     ',       225, 1,    1,    1, 1,  1.06355817, -4.61684596, 1.08889, 0.888889, 1.08889, 0.888889
   161, 'BUS 161     ',       225, 1,    1,    1, 1,  1.06341169, -4.62290462, 1.08889, 0.888889, 1.08889, 0.888889
   162, 'BUS 162     ',        90, 1,    1,    1, 1,  1.02526511, -18.2541106, 1.06667, 0.977778, 1.06667, 0.977778
   163, 'BUS 163     ',        63, 1,    1,    1, 1,  1.02136691, -6.22432606, 1.07937, 0.952381, 1.07937, 0.952381
   164, 'BUS 164     ',        63, 1,    1,    1, 1,  1.02136691, -6.22432606, 1.07937, 0.952381, 1.07937, 0.952381
   165, 'BUS 165     ',        20, 1,    1,    1, 1,  1.06958649, -25.1648491, 1.15,  0.8, 1.15,  0.8
   166, 'BUS 166     ',        90, 1,    1,    1, 1,  1.04218915, -29.5709908, 1.06667, 0.977778, 1.06667, 0.977778
   167, 'BUS 167     ',        90, 1,    1,    1, 1,  1.03463882, -29.8876265, 1.06667, 0.977778, 1.06667, 0.977778
   168, 'BUS 168     ',       225, 1,    1,    1, 1,  1.06967074, -25.1582215, 1.08444, 1.00444, 1.08444, 1.00444
   169, 'BUS 169     ',        90, 1,    1,    1, 1,  1.02635835, -27.5129079, 1.06667, 0.977778, 1.06667, 0.977778
   170, 'BUS 170     ',        90, 1,    1,    1, 1,  1.04989447,   -21.25518, 1.07778, 0.977778, 1.07778, 0.977778
   171, 'BUS 171     ',        90, 1,    1,    1, 1,  1.04571799,  -23.921678, 1.07778, 0.977778, 1.07778, 0.977778
   172, 'BUS 172     ',       225, 1,    1,    1, 1,  1.06465854, -19.8892662, 1.08889, 1.00444, 1.08889, 1.00444
   173, 'BUS 173     ',        90, 1,    1,    1, 1,  1.06990619, -6.73343649, 1.08889, 0.933333, 1.08889, 0.933333
   174, 'BUS 174     ',        90, 1,    1,    1, 1,  1.06578124, -11.2728218, 1.11111, 0.955556, 1.11111, 0.955556
   175, 'BUS 175     ',        63, 1,    1,    1, 1,  1.00313316, -23.0001881, 1.07937, 0.920635, 1.07937, 0.920635
   176, 'BUS 176     ',        63, 1,    1,    1, 1,  1.01288102, -20.7011782, 1.07937, 0.920635, 1.07937, 0.920635
   177, 'BUS 177     ',       150, 2,    1,    1, 1,  1.07314468, -17.8713404,  1.1,  0.9,  1.1,  0.9
   178, 'BUS 178     ',       225, 1,    1,    1, 1,   1.0830725, -16.2722384, 1.08889, 1.00444, 1.08889, 1.00444
   179, 'BUS 179     ',       225, 1,    1,    1, 1,  1.08307272, -16.2722396, 1.08889, 1.00444, 1.08889, 1.00444
   180, 'BUS 180     ',        20, 1,    1,    1, 1,  1.00374216, -19.4961422, 1.15,  0.8, 1.15,  0.8
   181, 'BUS 181     ',        20, 1,    1,    1, 1,  1.02635302, -19.4481365, 1.15,  0.8, 1.15,  0.8
   182, 'BUS 182     ',        63, 1,    1,    1, 1,  1.03407596, -19.3298098, 1.04762, 0.952381, 1.04762, 0.952381
   183, 'BUS 183     ',       225, 1,    1,    1, 1,   1.0830712, -16.2722314, 1.08889, 1.00444, 1.08889, 1.00444
   184, 'BUS 184     ',        63, 1,    1,    1, 1,  1.04803579, -26.3070703, 1.07937, 0.920635, 1.07937, 0.920635
   185, 'BUS 185     ',        63, 1,    1,    1, 1,  1.03138099,  -10.647407, 1.06349, 0.936508, 1.06349, 0.936508
   186, 'BUS 186     ',        63, 1,    1,    1, 1,  1.01592709, -15.4110518, 1.07937, 0.952381, 1.07937, 0.952381
   187, 'BUS 187     ',        90, 1,    1,    1, 1,  1.06702478, -18.5901086, 1.07778, 0.977778, 1.07778, 0.977778
   188, 'BUS 188     ',        63, 1,    1,    1, 1,  1.00764362, -12.3640743, 1.07937, 0.952381, 1.07937, 0.952381
   189, 'BUS 189     ',        90, 1,    1,    1, 1,  1.02544485, -17.5610238, 1.06667, 0.977778, 1.06667, 0.977778
   190, 'BUS 190     ',        63, 2,    1,    1, 1,  1.02526044, -24.3142213, 1.07937, 0.920635, 1.07937, 0.920635
   191, 'BUS 191     ',        63, 1,    1,    1, 1,  1.02786229, -23.8127607, 1.07937, 0.920635, 1.07937, 0.920635
   192, 'BUS 192     ',        45, 2,    1,    1, 1, 0.948167592, -8.50646106,    1, 0.888889,    1, 0.888889
   193, 'BUS 193     ',        90, 1,    1,    1, 1,  1.02865291, -27.5568671, 1.06667, 0.977778, 1.06667, 0.977778
   194, 'BUS 194     ',        63, 1,    1,    1, 1,  1.04988634, -24.3324955, 1.07937, 0.920635, 1.07937, 0.920635
   195, 'BUS 195     ',       225, 1,    1,    1, 1,  1.07074605, -17.1657151, 1.08889, 1.00444, 1.08889, 1.00444
   196, 'BUS 196     ',        63, 2,    1,    1, 1,       1.037, -25.5274656, 1.07937, 0.920635, 1.07937, 0.920635
   197, 'BUS 197     ',        63, 1,    1,    1, 1,  1.08972445, -16.6406808, 1.09837, 0.952381, 1.09837, 0.952381
   198, 'BUS 198     ',        63, 1,    1,    1, 1,  1.08972593, -16.6407234, 1.09837, 0.952381, 1.09837, 0.952381
   199, 'BUS 199     ',        63, 1,    1,    1, 1,  1.01120807, -29.4239285, 1.07937, 0.920635, 1.07937, 0.920635
   200, 'BUS 200     ',        63, 1,    1,    1, 1,  1.02943998, -25.1599728, 1.07937, 0.920635, 1.07937, 0.920635
...
0 / END OF BUS DATA, BEGIN LOAD DATA
     3,  1, 1,    1,    1,      12.5,      -0.7, 0, 0, 0, 0, 1, 1, 0
     4,  1, 1,    1,    1,      44.7,      -0.9, 0, 0, 0, 0, 1, 1, 0
     5,  1, 1,    1,    1,        12,       0.1, 0, 0, 0, 0, 1, 1, 0
     6,  1, 1,    1,    1,        13,       4.3, 0, 0, 0, 0, 1, 1, 0
     7,  1, 1,    1,    1,       1.2,       0.8, 0, 0, 0, 0, 1, 1, 0
     8,  1, 1,    1,    1,      25.8,       4.9, 0, 0, 0, 0, 1, 1, 0
     9,  1, 1,    1,    1,      12.9,         0, 0, 0, 0, 0, 1, 1, 0
    11,  1, 1,    1,    1,      28.8,       1.1, 0, 0, 0, 0, 1, 1, 0
    14,  1, 1,    1,    1,      51.5,       1.9, 0, 0, 0, 0, 1, 1, 0
    16,  1, 1,    1,    1,      13.8,       4.1, 0, 0, 0, 0, 1, 1, 0
    17,  1, 1,    1,    1,      13.1,       0.2, 0, 0, 0, 0, 1, 1, 0
    19,  1, 1,    1,    1,         1,         0, 0, 0, 0, 0, 1, 1, 0
    20,  1, 1,    1,    1,       0.9,     -21.5, 0, 0, 0, 0, 1, 1, 0
    21,  1, 1,    1,    1,       8.3,      -3.3, 0, 0, 0, 0, 1, 1, 0
    22,  1, 1,    1,    1,        18,       1.1, 0, 0, 0, 0, 1, 1, 0
    23,  1, 1,    1,    1,      19.2,       3.4, 0, 0, 0, 0, 1, 1, 0
    24,  1, 1,    1,    1,      16.1,      -1.6, 0, 0, 0, 0, 1, 1, 0
    25,  1, 1,    1,    1,      59.9,      -3.2, 0, 0, 0, 0, 1, 1, 0
    26,  1, 1,    1,    1,      35.1,       8.1, 0, 0, 0, 0, 1, 1, 0
    28,  1, 1,    1,    1,       0.7,       0.2, 0, 0, 0, 0, 1, 1, 0
    29,  1, 1,    1,    1,      60.1,       2.7, 0, 0, 0, 0, 1, 1, 0
    30,  1, 1,    1,    1,      33.5,      -0.9, 0, 0, 0, 0, 1, 1, 0
    37,  1, 1,    1,    1,       3.2,       4.3, 0, 0, 0, 0, 1, 1, 0
    38,  1, 1,    1,    1,         6,        -2, 0, 0, 0, 0, 1, 1, 0
    39,  1, 1,    1,    1,        41,      -3.3, 0, 0, 0, 0, 1, 1, 0
    40,  1, 1,    1,    1,      32.6,       0.5, 0, 0, 0, 0, 1, 1, 0
    43,  1, 1,    1,    1,       3.6,         2, 0, 0, 0, 0, 1, 1, 0
    44,  1, 1,    1,    1,        13,      -0.7, 0, 0, 0, 0, 1, 1, 0
    45,  1, 1,    1,    1,       3.9,       1.7, 0, 0, 0, 0, 1, 1, 0
    48,  1, 1,    1,    1,      36.5,       3.4, 0, 0, 0, 0, 1, 1, 0
    49,  1, 1,    1,    1,       8.8,      -1.7, 0, 0, 0, 0, 1, 1, 0
    52,  1, 1,    1,    1,         5,       2.4, 0, 0, 0, 0, 1, 1, 0
    53,  1, 1,    1,    1,       2.5,      -0.5, 0, 0, 0, 0, 1, 1, 0
    54,  1, 1,    1,    1,      -0.4,        -0, 0, 0, 0, 0, 1, 1, 0
    55,  1, 1,    1,    1,      37.6,       6.7, 0, 0, 0, 0, 1, 1, 0
    56,  1, 1,    1,    1,      52.1,      13.5, 0, 0, 0, 0, 1, 1, 0
    58,  1, 1,    1,    1,     130.6,      30.1, 0, 0, 0, 0, 1, 1, 0
    59,  1, 1,    1,    1,       5.1,       1.3, 0, 0, 0, 0, 1, 1, 0
    61,  1, 1,    1,    1,      39.5,       9.7, 0, 0, 0, 0, 1, 1, 0
    63,  1, 1,    1,    1,      15.8,         2, 0, 0, 0, 0, 1, 1, 0
    64,  1, 1,    1,    1,      62.4,         1, 0, 0, 0, 0, 1, 1, 0
    65,  1, 1,    1,    1,        11,       2.8, 0, 0, 0, 0, 1, 1, 0
    66,  1, 1,    1,    1,      13.2,      -7.9, 0, 0, 0, 0, 1, 1, 0
    68,  1, 1,    1,    1,      48.1,      -0.1, 0, 0, 0, 0, 1, 1, 0
    69,  1, 1,    1,    1,      19.3,      -2.7, 0, 0, 0, 0, 1, 1, 0
    70,  1, 1,    1,    1,      10.6,       2.7, 0, 0, 0, 0, 1, 1, 0
    71,  1, 1,    1,    1,      62.4,      14.9, 0, 0, 0, 0, 1, 1, 0
    74,  1, 1,    1,    1,      50.4,      -9.9, 0, 0, 0, 0, 1, 1, 0
    75,  1, 1,    1,    1,      22.3,       1.8, 0, 0, 0, 0, 1, 1, 0
    76,  1, 1,    1,    1,       2.6,      -0.4, 0, 0, 0, 0, 1, 1, 0
    77,  1, 1,    1,    1,      36.8,      -0.4, 0, 0, 0, 0, 1, 1, 0
    80,  1, 1,    1,    1,      32.3,       7.3, 0, 0, 0, 0, 1, 1, 0
    81,  1, 1,    1,    1,      36.3,       9.9, 0, 0, 0, 0, 1, 1, 0
    82,  1, 1,    1,    1,      11.7,       1.6, 0, 0, 0, 0, 1, 1, 0
    83,  1, 1,    1,    1,      77.5,      26.4, 0, 0, 0, 0, 1, 1, 0
    84,  1, 1,    1,    1,      -1.6,      -1.2, 0, 0, 0, 0, 1, 1, 0
    85,  1, 1,    1,    1,       2.1,      -2.1, 0, 0, 0, 0, 1, 1, 0
    86,  1, 1,    1,    1,      48.9,       3.6, 0, 0, 0, 0, 1, 1, 0
    88,  1, 1,    1,    1,      13.5,      -0.1, 0, 0, 0, 0, 1, 1, 0
    89,  1, 1,    1,    1,      25.4,       0.8, 0, 0, 0, 0, 1, 1, 0
    90,  1, 1,    1,    1,       0.4,      -1.4, 0, 0, 0, 0, 1, 1, 0
    91,  1, 1,    1,    1,         1,         0, 0, 0, 0, 0, 1, 1, 0
    92,  1, 1,    1,    1,      28.6,       3.2, 0, 0, 0, 0, 1, 1, 0
    93,  1, 1,    1,    1,       2.1,      -2.5, 0, 0, 0, 0, 1, 1, 0
    94,  1, 1,    1,    1,      17.5,      -4.3, 0, 0, 0, 0, 1, 1, 0
    95,  1, 1,    1,    1,      46.5,       7.6, 0, 0, 0, 0, 1, 1, 0
    96,  1, 1,    1,    1,       1.5,      -0.7, 0, 0, 0, 0, 1, 1, 0
    97,  1, 1,    1,    1,      56.4,       0.9, 0, 0, 0, 0, 1, 1, 0
    98,  1, 1,    1,    1,       7.4,      -1.3, 0, 0, 0, 0, 1, 1, 0
    99,  1, 1,    1,    1,      26.9,       3.1, 0, 0, 0, 0, 1, 1, 0
   100,  1, 1,    1,    1,      53.3,       8.6, 0, 0, 0, 0, 1, 1, 0
   101,  1, 1,    1,    1,      17.7,       0.5, 0, 0, 0, 0, 1, 1, 0
   103,  1, 1,    1,    1,        18,      -1.1, 0, 0, 0, 0, 1, 1, 0
   105,  1, 1,    1,    1,      35.5,         1, 0, 0, 0, 0, 1, 1, 0
   106,  1, 1,    1,    1,      49.8,       7.5, 0, 0, 0, 0, 1, 1, 0
   107,  1, 1,    1,    1,      77.6,       8.1, 0, 0, 0, 0, 1, 1, 0
   108,  1, 1,    1,    1,      12.6,      -0.4, 0, 0, 0, 0, 1, 1, 0
   109,  1, 1,    1,    1,      68.7,      10.9, 0, 0, 0, 0, 1, 1, 0
   111,  1, 1,    1,    1,      36.5,      -7.9, 0, 0, 0, 0, 1, 1, 0
   114,  1, 1,    1,    1,      10.8,        -0, 0, 0, 0, 0, 1, 1, 0
   117,  1, 1,    1,    1,      15.4,        -1, 0, 0, 0, 0, 1, 1, 0
   118,  1, 1,    1,    1,         2,       0.8, 0, 0, 0, 0, 1, 1, 0
   119,  1, 1,    1,    1,      37.2,       5.3, 0, 0, 0, 0, 1, 1, 0
   120,  1, 1,    1,    1,        17,      -3.2, 0, 0, 0, 0, 1, 1, 0
   121,  1, 1,    1,    1,      17.6,       3.9, 0, 0, 0, 0, 1, 1, 0
   123,  1, 1,    1,    1,         9,       2.6, 0, 0, 0, 0, 1, 1, 0
   124,  1, 1,    1,    1,         8,      -0.9, 0, 0, 0, 0, 1, 1, 0
   125,  1, 1,    1,    1,      10.5,      -0.5, 0, 0, 0, 0, 1, 1, 0
   126,  1, 1,    1,    1,       0.3,      -0.1, 0, 0, 0, 0, 1, 1, 0
   127,  1, 1,    1,    1,       7.8,       1.5, 0, 0, 0, 0, 1, 1, 0
   128,  1, 1,    1,    1,      11.8,       7.6, 0, 0, 0, 0, 1, 1, 0
   129,  1, 1,    1,    1,      16.7,      11.8, 0, 0, 0, 0, 1, 1, 0
   131,  1, 1,    1,    1,       103,      13.6, 0, 0, 0, 0, 1, 1, 0
   132,  1, 1,    1,    1,      11.5,         0, 0, 0, 0, 0, 1, 1, 0
   133,  1, 1,    1,    1,       2.1,       0.5, 0, 0, 0, 0, 1, 1, 0
   134,  1, 1,    1,    1,      83.5,      23.6, 0, 0, 0, 0, 1, 1, 0
   136,  1, 1,    1,    1,      21.9,      -0.2, 0, 0, 0, 0, 1, 1, 0
   137,  1, 1,    1,    1,       9.6,      -4.4, 0, 0, 0, 0, 1, 1, 0
   139,  1, 1,    1,    1,      15.7,       2.2, 0, 0, 0, 0, 1, 1, 0
   142,  1, 1,    1,    1,      14.8,       5.8, 0, 0, 0, 0, 1, 1, 0
   144,  1, 1,    1,    1,      23.3,     -10.3, 0, 0, 0, 0, 1, 1, 0
   145,  1, 1,    1,    1,      27.6,       5.9, 0, 0, 0, 0, 1, 1, 0
   147,  1, 1,    1,    1,        29,       5.5, 0, 0, 0, 0, 1, 1, 0
   148,  1, 1,    1,    1,       6.7,       2.4, 0, 0, 0, 0, 1, 1, 0
   149,  1, 1,    1,    1,      17.9,       6.1, 0, 0, 0, 0, 1, 1, 0
   150,  1, 1,    1,    1,      44.5,       6.4, 0, 0, 0, 0, 1, 1, 0
   152,  1, 1,    1,    1,      38.3,       8.8, 0, 0, 0, 0, 1, 1, 0
   153,  1, 1,    1,    1,      23.2,      -2.6, 0, 0, 0, 0, 1, 1, 0
   157,  1, 1,    1,    1,       0.3,       3.1, 0, 0, 0, 0, 1, 1, 0
   160,  1, 1,    1,    1,      35.2,       5.6, 0, 0, 0, 0, 1, 1, 0
   161,  1, 1,    1,    1,      38.2,       8.7, 0, 0, 0, 0, 1, 1, 0
   162,  1, 1,    1,    1,       0.7,      -1.4, 0, 0, 0, 0, 1, 1, 0
   165,  1, 1,    1,    1,      16.7,       9.2, 0, 0, 0, 0, 1, 1, 0
   166,  1, 1,    1,    1,      10.1,       2.4, 0, 0, 0, 0, 1, 1, 0
   167,  1, 1,    1,    1,      13.6,       0.6, 0, 0, 0, 0, 1, 1, 0
   169,  1, 1,    1,    1,      10.8,        -1, 0, 0, 0, 0, 1, 1, 0
   170,  1, 1,    1,    1,      70.4,      11.6, 0, 0, 0, 0, 1, 1, 0
   171,  1, 1,    1,    1,      26.5,      -0.4, 0, 0, 0, 0, 1, 1, 0
   173,  1, 1,    1,    1,      27.7,       8.5, 0, 0, 0, 0, 1, 1, 0
   174,  1, 1,    1,    1,      47.4,       4.6, 0, 0, 0, 0, 1, 1, 0
   184,  1, 1,    1,    1,      12.9,      -4.6, 0, 0, 0, 0, 1, 1, 0
   185,  1, 1,    1,    1,        16,       3.1, 0, 0, 0, 0, 1, 1, 0
   186,  1, 1,    1,    1,       4.8,      -0.4, 0, 0, 0, 0, 1, 1, 0
   187,  1, 1,    1,    1,         5,       1.4, 0, 0, 0, 0, 1, 1, 0
   188,  1, 1,    1,    1,      28.7,         4, 0, 0, 0, 0, 1, 1, 0
   189,  1, 1,    1,    1,       1.1,       0.3, 0, 0, 0, 0, 1, 1, 0
   191,  1, 1,    1,    1,      16.2,       1.6, 0, 0, 0, 0, 1, 1, 0
   193,  1, 1,    1,    1,      13.8,      -0.3, 0, 0, 0, 0, 1, 1, 0
   194,  1, 1,    1,    1,       7.4,      -1.5, 0, 0, 0, 0, 1, 1, 0
   195,  1, 1,    1,    1,       7.9,       4.8, 0, 0, 0, 0, 1, 1, 0
   196,  1, 1,    1,    1,         1,      -0.3, 0, 0, 0, 0, 1, 1, 0
   199,  1, 1,    1,    1,      24.4,       1.2, 0, 0, 0, 0, 1, 1, 0
   200,  1, 1,    1,    1,       9.3,      -2.7, 0, 0, 0, 0, 1, 1, 0
   201,  1, 1,    1,    1,      12.8,       1.9, 0, 0, 0, 0, 1, 1, 0
   203,  1, 1,    1,    1,      73.3,      24.6, 0, 0, 0, 0, 1, 1, 0
   204,  1, 1,    1,    1,      41.8,       1.4, 0, 0, 0, 0, 1, 1, 0
   205,  1, 1,    1,    1,      17.5,       2.5, 0, 0, 0, 0, 1, 1, 0
   208,  1, 1,    1,    1,      50.1,       6.8, 0, 0, 0, 0, 1, 1, 0
   209,  1, 1,    1,    1,      32.9,       4.1, 0, 0, 0, 0, 1, 1, 0
   210,  1, 1,    1,    1,      14.4,      -1.6, 0, 0, 0, 0, 1, 1, 0
   211,  1, 1,    1,    1,       2.9,       0.1, 0, 0, 0, 0, 1, 1, 0
   212,  1, 1,    1,    1,      40.8,       5.5, 0, 0, 0, 0, 1, 1, 0
   213,  1, 1,    1,    1,      31.8,      12.2, 0, 0, 0, 0, 1, 1, 0
   216,  1, 1,    1,    1,      37.5,       3.1, 0, 0, 0, 0, 1, 1, 0
   218,  1, 1,    1,    1,      20.7,      -2.4, 0, 0, 0, 0, 1, 1, 0
   219,  1, 1,    1,    1,        25,       3.4, 0, 0, 0, 0, 1, 1, 0
   220,  1, 1,    1,    1,       1.6,      -0.1, 0, 0, 0, 0, 1, 1, 0
   221,  1, 1,    1,    1,      10.4,      -3.7, 0, 0, 0, 0, 1, 1, 0
   222,  1, 1,    1,    1,        11,       1.5, 0, 0, 0, 0, 1, 1, 0
   223,  1, 1,    1,    1,      14.3,      -8.5, 0, 0, 0, 0, 1, 1, 0
   225,  1, 1,    1,    1,      40.8,         2, 0, 0, 0, 0, 1, 1, 0
   227,  1, 1,    1,    1,      37.6,         6, 0, 0, 0, 0, 1, 1, 0
   228,  1, 1,    1,    1,      38.6,        44, 0, 0, 0, 0, 1, 1, 0
   229,  1, 1,    1,    1,         4,       0.2, 0, 0, 0, 0, 1, 1, 0
   230,  1, 1,    1,    1,       9.9,        -2, 0, 0, 0, 0, 1, 1, 0
   231,  1, 1,    1,    1,      12.4,      -5.7, 0, 0, 0, 0, 1, 1, 0
   233,  1, 1,    1,    1,         6,      -2.4, 0, 0, 0, 0, 1, 1, 0
   234,  1, 1,    1,    1,       6.4,         1, 0, 0, 0, 0, 1, 1, 0
   236,  1, 1,    1,    1,      23.9,       8.5, 0, 0, 0, 0, 1, 1, 0
   237,  1, 1,    1,    1,      13.7,       3.1, 0, 0, 0, 0, 1, 1, 0
   238,  1, 1,    1,    1,      26.6,       1.5, 0, 0, 0, 0, 1, 1, 0
   239,  1, 1,    1,    1,      46.2,       6.8, 0, 0, 0, 0, 1, 1, 0
   240,  1, 1,    1,    1,      21.4,      -0.9, 0, 0, 0, 0, 1, 1, 0
   241,  1, 1,    1,    1,      52.1,       3.6, 0, 0, 0, 0, 1, 1, 0
   242,  1, 1,    1,    1,      41.4,       8.3, 0, 0, 0, 0, 1, 1, 0
   243,  1, 1,    1,    1,      45.4,       4.4, 0, 0, 0, 0, 1, 1, 0
   244,  1, 1,    1,    1,      45.5,       4.8, 0, 0, 0, 0, 1, 1, 0
   245,  1, 1,    1,    1,      26.7,      -3.4, 0, 0, 0, 0, 1, 1, 0
   246,  1, 1,    1,    1,      53.1,       3.3, 0, 0, 0, 0, 1, 1, 0
   247,  1, 1,    1,    1,      12.8,      -2.1, 0, 0, 0, 0, 1, 1, 0
   248,  1, 1,    1,    1,      12.3,       4.9, 0, 0, 0, 0, 1, 1, 0
   250,  1, 1,    1,    1,      28.9,       9.4, 0, 0, 0, 0, 1, 1, 0
   251,  1, 1,    1,    1,        24,      -5.3, 0, 0, 0, 0, 1, 1, 0
   252,  1, 1,    1,    1,      23.5,      -7.3, 0, 0, 0, 0, 1, 1, 0
   253,  1, 1,    1,    1,       6.1,        -0, 0, 0, 0, 0, 1, 1, 0
   254,  1, 1,    1,    1,       9.5,      -1.6, 0, 0, 0, 0, 1, 1, 0
   255,  1, 1,    1,    1,      48.5,       6.8, 0, 0, 0, 0, 1, 1, 0
   256,  1, 1,    1,    1,      16.9,       0.4, 0, 0, 0, 0, 1, 1, 0
   257,  1, 1,    1,    1,       6.9,      -1.4, 0, 0, 0, 0, 1, 1, 0
   258,  1, 1,    1,    1,       4.7,         0, 0, 0, 0, 0, 1, 1, 0
   261,  1, 1,    1,    1,      29.7,       1.1, 0, 0, 0, 0, 1, 1, 0
   268,  1, 1,    1,    1,      26.3,       6.4, 0, 0, 0, 0, 1, 1, 0
   269,  1, 1,    1,    1,      57.3,      10.1, 0, 0, 0, 0, 1, 1, 0
   270,  1, 1,    1,    1,      10.5,       9.5, 0, 0, 0, 0, 1, 1, 0
   271,  1, 1,    1,    1,      22.7,       2.7, 0, 0, 0, 0, 1, 1, 0
   274,  1, 1,    1,    1,       6.7,       7.7, 0, 0, 0, 0, 1, 1, 0
   275,  1, 1,    1,    1,      55.4,       0.8, 0, 0, 0, 0, 1, 1, 0
   276,  1, 1,    1,    1,      43.8,       8.2, 0, 0, 0, 0, 1, 1, 0
   279,  1, 1,    1,    1,       1.8,       4.2, 0, 0, 0, 0, 1, 1, 0
   280,  1, 1,    1,    1,      -1.5,       4.3, 0, 0, 0, 0, 1, 1, 0
   281,  1, 1,    1,    1,        10,      -2.1, 0, 0, 0, 0, 1, 1, 0
   282,  1, 1,    1,    1,        48,      11.3, 0, 0, 0, 0, 1, 1, 0
   283,  1, 1,    1,    1,      12.8,       0.9, 0, 0, 0, 0, 1, 1, 0
   285,  1, 1,    1,    1,      10.8,       0.2, 0, 0, 0, 0, 1, 1, 0
   286,  1, 1,    1,    1,      14.7,       3.5, 0, 0, 0, 0, 1, 1, 0
   287,  1, 1,    1,    1,       1.4,         5, 0, 0, 0, 0, 1, 1, 0
   288,  1, 1,    1,    1,      19.4,         7, 0, 0, 0, 0, 1, 1, 0
   289,  1, 1,    1,    1,      25.8,      -4.9, 0, 0, 0, 0, 1, 1, 0
   290,  1, 1,    1,    1,      33.5,      -2.7, 0, 0, 0, 0, 1, 1, 0
   291,  1, 1,    1,    1,      43.4,       2.2, 0, 0, 0, 0, 1, 1, 0
...
0 / END OF LOAD DATA, BEGIN FIXED SHUNT DATA
   140, 1, 1,       0,      80
   152, 1, 1,       0,     7.7
   180, 1, 1,       0,     -32
   181, 1, 1,       0,     -32
   216, 1, 1,       0,    30.4
   264, 1, 1,       0,      80
   667, 1, 1,       0,      10
   767, 1, 1,       0,      34
   914, 1, 1,       0,     -64
   932, 1, 1,       0,     -58
   933, 1, 1,       0,     -58
   934, 1, 1,       0,     -58
   999, 1, 1,       0,     -64
  1134, 1, 1,       0,      29
  1174, 1, 1,       0,      80
  1189, 1, 1,       0,     -80
  1210, 1, 1,       0,      40
  1228, 1, 1,       0,      30
  1250, 1, 1,       0,       9
  1457, 1, 1,       0,       6
  1477, 1, 1,       0,      30
  1533, 1, 1,       0,      30
  1597, 1, 1,       0,     -64
  1689, 1, 1,       0,      30
  1755, 1, 1,       0,    15.4
  1778, 1, 1,       0,      80
  1780, 1, 1,       0,    30.4
  1781, 1, 1,       0,      80
  1794, 1, 1,       0,      10
  1933, 1, 1,       0,     -64
  2041, 1, 1,       0,    15.4
  2390, 1, 1,       0,      30
  2470, 1, 1,       0,    30.4
  2485, 1, 1,       0,      30
  2486, 1, 1,       0,      80
  2550, 1, 1,       0,      60
  2722, 1, 1,       0,     320
  2769, 1, 1,       0,     -64
  2798, 1, 1,       0,      80
  2810, 1, 1,       0,      30
  2865, 1, 1,       0,      80
  2966, 1, 1,       0,     -60
  3003, 1, 1,       0,      30
  3179, 1, 1,       0,      78
  3297, 1, 1,       0,      15
  3321, 1, 1,       0,      60
  3381, 1, 1,       0,      80
  3540, 1, 1,       0,      80
  3621, 1, 1,       0,      30
  3625, 1, 1,       0,      20
  3667, 1, 1,       0,      40
  3737, 1, 1,       0,      30
  3874, 1, 1,       0,      30
  4005, 1, 1,       0,      34
  4106, 1, 1,       0,     -64
  4143, 1, 1,       0,      34
  4144, 1, 1,       0,      80
  4244, 1, 1,       0,      34
  4257, 1, 1,       0,      20
  4417, 1, 1,       0,     -15
  4458, 1, 1,       0,      20
  4473, 1, 1,       0,    15.4
  4547, 1, 1,       0,      80
  4607, 1, 1,       0,      60
  4646, 1, 1,       0,    30.4
  4675, 1, 1,       0,      61
  4742, 1, 1,       0,      30
  4771, 1, 1,       0,     -64
  4954, 1, 1,       0,     -58
  4955, 1, 1,       0,     -58
  6115, 1, 1,       0,    -150
  6155, 1, 1,       0,    -150
  6185, 1, 1,       0,    -150
0 / END OF FIXED SHUNT DATA, BEGIN GENERATOR DATA
     4,  1,         0,         0,         0,         0,    1.045, 0,     100, 0, 1, 0, 0, 1, 0, 100,        12,         0, 1, 1, 0, 1, 0, 1, 0, 1, 0, 1
     4,  2,         0,         0,         0,         0,    1.045, 0,     100, 0, 1, 0, 0, 1, 0, 100,        10,         0, 1, 1, 0, 1, 0, 1, 0, 1, 0, 1
     5,  1,      6.05,         0,         0,         0,    1.017, 0,     100, 0, 1, 0, 0, 1, 1, 100,       9.1,         0, 1, 1, 0, 1, 0, 1, 0, 1, 0, 1
    11,  1,         0,         0,         0,         0,    1.035, 0,     100, 0, 1, 0, 0, 1, 0, 100,        28,         0, 1, 1, 0, 1, 0, 1, 0, 1, 0, 1
    11,  2,         0,         0,         0,         0,    1.035, 0,     100, 0, 1, 0, 0, 1, 0, 100,        18,         0, 1, 1, 0, 1, 0, 1, 0, 1, 0, 1
    17,  1,      1.22,         0,         0,         0,    1.049, 0,     100, 0, 1, 0, 0, 1, 1, 100,       8.2,         0, 1, 1, 0, 1, 0, 1, 0, 1, 0, 1
    19,  1,         0,         0,         0,         0,     1.02, 0,     100, 0, 1, 0, 0, 1, 0, 100,       1.2,         0, 1, 1, 0, 1, 0, 1, 0, 1, 0, 1
    22,  1,         0,         0,         0,         0,    1.013, 0,     100, 0, 1, 0, 0, 1, 0, 100,        10,         0, 1, 1, 0, 1, 0, 1, 0, 1, 0, 1
    24,  1,         0,         0,         0,         0,    1.042, 0,     100, 0, 1, 0, 0, 1, 0, 100,      16.1,         0, 1, 1, 0, 1, 0, 1, 0, 1, 0, 1
    24,  2,      0.18,         0,         0,         0,    1.042, 0,     100, 0, 1, 0, 0, 1, 1, 100,      35.5,         0, 1, 1, 0, 1, 0, 1, 0, 1, 0, 1
    25,  1,      3.21,         0,         0,         0,    1.074, 0,     100, 0, 1, 0, 0, 1, 1, 100,        36,         0, 1, 1, 0, 1, 0, 1, 0, 1, 0, 1
    25,  2,         0,         0,         0,         0,    1.074, 0,     100, 0, 1, 0, 0, 1, 0, 100,      27.2,         0, 1, 1, 0, 1, 0, 1, 0, 1, 0, 1
    40,  1,         0,         0,         0,         0,    1.063, 0,     100, 0, 1, 0, 0, 1, 0, 100,         8,         0, 1, 1, 0, 1, 0, 1, 0, 1, 0, 1
    47,  1,      9.47,     -5.96,       9.5,      -9.5,    1.012, 0,     100, 0, 1, 0, 0, 1, 1, 100,        16,         0, 1, 1, 0, 1, 0, 1, 0, 1, 0, 1
    47,  2,         0,     -1.81,       9.5,      -9.5,    1.012, 0,     100, 0, 1, 0, 0, 1, 0, 100,        16,         0, 1, 1, 0, 1, 0, 1, 0, 1, 0, 1
    48,  1,      2.17,         0,         0,         0,    1.035, 0,     100, 0, 1, 0, 0, 1, 1, 100,        23,         0, 1, 1, 0, 1, 0, 1, 0, 1, 0, 1
    48,  2,      1.17,         0,         0,         0,    1.035, 0,     100, 0, 1, 0, 0, 1, 1, 100,        24,         0, 1, 1, 0, 1, 0, 1, 0, 1, 0, 1
    57,  1,         0,         1,         1,       0.9,    1.051, 0,     100, 0, 1, 0, 0, 1, 1, 100,        13,         0, 1, 1, 0, 1, 0, 1, 0, 1, 0, 1
    64,  1,         0,         0,         0,         0,    1.075, 0,     100, 0, 1, 0, 0, 1, 0, 100,        24,         0, 1, 1, 0, 1, 0, 1, 0, 1, 0, 1
    64,  2,      1.19,         0,         0,         0,    1.075, 0,     100, 0, 1, 0, 0, 1, 1, 100,      27.6,         0, 1, 1, 0, 1, 0, 1, 0, 1, 0, 1
    69,  1,      7.25,         0,         0,         0,    1.042, 0,     100, 0, 1, 0, 0, 1, 1, 100,     30.04,         0, 1, 1, 0, 1, 0, 1, 0, 1, 0, 1
    70,  1,      3.27,         0,         0,         0,    1.015, 0,     100, 0, 1, 0, 0, 1, 1, 100,        23,         0, 1, 1, 0, 1, 0, 1, 0, 1, 0, 1
    85,  1,         0,         0,         0,         0,    1.034, 0,     100, 0, 1, 0, 0, 1, 0, 100,      6.68,         0, 1, 1, 0, 1, 0, 1, 0, 1, 0, 1
    86,  1,      2.76,         0,         0,         0,    1.021, 0,     100, 0, 1, 0, 0, 1, 1, 100,       9.2,         0, 1, 1, 0, 1, 0, 1, 0, 1, 0, 1
   102,  1,     19.07,      -3.5,        21,        -9,    1.026, 0,     100, 0, 1, 0, 0, 1, 1, 100,        46,         0, 1, 1, 0, 1, 0, 1, 0, 1, 0, 1
   122,  1,      7.97,     -1.18,         5,        -2,    1.026, 0,     100, 0, 1, 0, 0, 1, 1, 100,        12,         0, 1, 1, 0, 1, 0, 1, 0, 1, 0, 1
   124,  1,      1.36,         0,         0,         0,    1.038, 0,     100, 0, 1, 0, 0, 1, 1, 100,         9,         0, 1, 1, 0, 1, 0, 1, 0, 1, 0, 1
   125,  1,      6.12,         0,         0,         0,    1.037, 0,     100, 0, 1, 0, 0, 1, 1, 100,        26,         0, 1, 1, 0, 1, 0, 1, 0, 1, 0, 1
   125,  2,      1.12,         0,         0,         0,    1.037, 0,     100, 0, 1, 0, 0, 1, 1, 100,        12,         0, 1, 1, 0, 1, 0, 1, 0, 1, 0, 1
   132,  1,      7.12,      1.99,         3,        -3,    1.065, 0,     100, 0, 1, 0, 0, 1, 1, 100,        17,         0, 1, 1, 0, 1, 0, 1, 0, 1, 0, 1
   132,  2,         0,         1,         1,        -1,    1.065, 0,     100, 0, 1, 0, 0, 1, 0, 100,         4,         0, 1, 1, 0, 1, 0, 1, 0, 1, 0, 1
   132,  3,         0,      1.99,         3,        -3,    1.065, 0,     100, 0, 1, 0, 0, 1, 0, 100,        14,         0, 1, 1, 0, 1, 0, 1, 0, 1, 0, 1
   132,  4,         0,      1.99,         3,        -3,    1.065, 0,     100, 0, 1, 0, 0, 1, 0, 100,        14,         0, 1, 1, 0, 1, 0, 1, 0, 1, 0, 1
   137,  1,         0,     -0.57,       0.8,      -0.8,    1.032, 0,     100, 0, 1, 0, 0, 1, 0, 100,        18,         0, 1, 1, 0, 1, 0, 1, 0, 1, 0, 1
   137,  2,         4,      -0.8,       0.8,      -0.8,    1.032, 0,     100, 0, 1, 0, 0, 1, 1, 100,        18,         0, 1, 1, 0, 1, 0, 1, 0, 1, 0, 1
   155,  1,         0,     -1.75,      1.76,     -1.76,    0.971, 0,     100, 0, 1, 0, 0, 1, 0, 100,       5.3,         0, 1, 1, 0, 1, 0, 1, 0, 1, 0, 1
   158,  1,      7.05,      1.44,        10,       -13,    0.947, 0,     100, 0, 1, 0, 0, 1, 1, 100,      17.9,         0, 1, 1, 0, 1, 0, 1, 0, 1, 0, 1
   158,  2,         0,     -2.57,        10,       -13,    0.947, 0,     100, 0, 1, 0, 0, 1, 0, 100,      17.9,         0, 1, 1, 0, 1, 0, 1, 0, 1, 0, 1
   177,  1,         0,     -1.56,        10,        -4,    1.073, 0,     100, 0, 1, 0, 0, 1, 0, 100,        30,         0, 1, 1, 0, 1, 0, 1, 0, 1, 0, 1
   190,  1,         0,     -1.41,         8,        -8,    1.009, 0,     100, 0, 1, 0, 0, 1, 0, 100,        11,         0, 1, 1, 0, 1, 0, 1, 0, 1, 0, 1
   190,  2,         0,     -1.41,         2,        -2,    1.009, 0,     100, 0, 1, 0, 0, 1, 0, 100,        11,         0, 1, 1, 0, 1, 0, 1, 0, 1, 0, 1
   192,  1,         0,     -2.63,        14,       -14,    0.939, 0,     100, 0, 1, 0, 0, 1, 0, 100,        30,         0, 1, 1, 0, 1, 0, 1, 0, 1, 0, 1
   194,  1,         0,         0,         0,         0,     1.05, 0,     100, 0, 1, 0, 0, 1, 0, 100,      23.5,         0, 1, 1, 0, 1, 0, 1, 0, 1, 0, 1
   196,  1,      2.44,       0.9,         1,       0.9,    1.037, 0,     100, 0, 1, 0, 0, 1, 1, 100,        15,         0, 1, 1, 0, 1, 0, 1, 0, 1, 0, 1
   196,  2,      2.44,       0.9,         1,       0.9,    1.037, 0,     100, 0, 1, 0, 0, 1, 1, 100,        15,         0, 1, 1, 0, 1, 0, 1, 0, 1, 0, 1
   219,  1,      1.46,         0,         0,         0,    1.016, 0,     100, 0, 1, 0, 0, 1, 1, 100,     11.94,         0, 1, 1, 0, 1, 0, 1, 0, 1, 0, 1
   226,  1,         0,         0,         2,         0,    1.073, 0,     100, 0, 1, 0, 0, 1, 0, 100,         6,         0, 1, 1, 0, 1, 0, 1, 0, 1, 0, 1
   229,  1,      3.17,         0,         0,         0,    1.025, 0,     100, 0, 1, 0, 0, 1, 1, 100,       7.5,         0, 1, 1, 0, 1, 0, 1, 0, 1, 0, 1
   238,  1,       1.2,         0,         0,         0,    1.047, 0,     100, 0, 1, 0, 0, 1, 1, 100,      33.5,         0, 1, 1, 0, 1, 0, 1, 0, 1, 0, 1
   238,  2,       0.2,         0,         0,         0,    1.047, 0,     100, 0, 1, 0, 0, 1, 1, 100,      24.3,         0, 1, 1, 0, 1, 0, 1, 0, 1, 0, 1
   240,  1,         0,         0,         0,         0,    1.022, 0,     100, 0, 1, 0, 0, 1, 0, 100,         8,         0, 1, 1, 0, 1, 0, 1, 0, 1, 0, 1
   240,  2,      6.28,         0,         0,         0,    1.022, 0,     100, 0, 1, 0, 0, 1, 1, 100,        36,         0, 1, 1, 0, 1, 0, 1, 0, 1, 0, 1
   248,  1,         0,         0,         2,         0,    0.976, 0,     100, 0, 1, 0, 0, 1, 0, 100,         1,         0, 1, 1, 0, 1, 0, 1, 0, 1, 0, 1
   248,  2,         0,     -2.77,        10,       -10,    0.976, 0,     100, 0, 1, 0, 0, 1, 0, 100,        31,         0, 1, 1, 0, 1, 0, 1, 0, 1, 0, 1
   248,  3,         0,     -2.77,        10,       -10,    0.976, 0,     100, 0, 1, 0, 0, 1, 0, 100,        31,         0, 1, 1, 0, 1, 0, 1, 0, 1, 0, 1
   248,  4,         0,     -2.77,        10,       -10,    0.976, 0,     100, 0, 1, 0, 0, 1, 0, 100,        31,         0, 1, 1, 0, 1, 0, 1, 0, 1, 0, 1
   258,  1,         0,     -1.94,        10,       -10,    1.031, 0,     100, 0, 1, 0, 0, 1, 0, 100,        26,         0, 1, 1, 0, 1, 0, 1, 0, 1, 0, 1
   258,  2,         0,      0.23,        10,       -10,    1.031, 0,     100, 0, 1, 0, 0, 1, 0, 100,        26,         0, 1, 1, 0, 1, 0, 1, 0, 1, 0, 1
   260,  1,     27.18,         1,         1,       0.9,    1.071, 0,     100, 0, 1, 0, 0, 1, 1, 100,        30,         0, 1, 1, 0, 1, 0, 1, 0, 1, 0, 1
   263,  1,      3.85,      -0.6,         4,        -4,    0.998, 0,     100, 0, 1, 0, 0, 1, 1, 100,         8,         0, 1, 1, 0, 1, 0, 1, 0, 1, 0, 1
   271,  1,         0,         0,         0,         0,    0.997, 0,     100, 0, 1, 0, 0, 1, 0, 100,      12.6,         0, 1, 1, 0, 1, 0, 1, 0, 1, 0, 1
   284,  1,         0,     -2.78,       6.1,      -6.2,    0.975, 0,     100, 0, 1, 0, 0, 1, 0, 100,      11.6,         0, 1, 1, 0, 1, 0, 1, 0, 1, 0, 1
   297,  1,         0,         0,         0,         0,    1.064, 0,     100, 0, 1, 0, 0, 1, 0, 100,      25.3,         0, 1, 1, 0, 1, 0, 1, 0, 1, 0, 1
   298,  1,         0,         0,         0,         0,    1.014, 0,     100, 0, 1, 0, 0, 1, 0, 100,        12,         0, 1, 1, 0, 1, 0, 1, 0, 1, 0, 1
   307,  1,      1.12,     -6.48,         9,        -9,    1.038, 0,     100, 0, 1, 0, 0, 1, 1, 100,        15,         0, 1, 1, 0, 1, 0, 1, 0, 1, 0, 1
   314,  1,      7.16,         0,         0,         0,    1.032, 0,     100, 0, 1, 0, 0, 1, 1, 100,      25.8,         0, 1, 1, 0, 1, 0, 1, 0, 1, 0, 1
   314,  2,     18.16,         0,         0,         0,    1.032, 0,     100, 0, 1, 0, 0, 1, 1, 100,      49.6,         0, 1, 1, 0, 1, 0, 1, 0, 1, 0, 1
   321,  1,       4.8,      -0.1,       0.1,      -0.1,    1.042, 0,     100, 0, 1, 0, 0, 1, 1, 100,      10.8,         0, 1, 1, 0, 1, 0, 1, 0, 1, 0, 1
   327,  2,         0,     -0.57,         4,        -4,    1.023, 0,     100, 0, 1, 0, 0, 1, 0, 100,        11,         0, 1, 1, 0, 1, 0, 1, 0, 1, 0, 1
   334,  1,         0,      0.13,        13,        -9,    1.028, 0,     100, 0, 1, 0, 0, 1, 0, 100,        25,         0, 1, 1, 0, 1, 0, 1, 0, 1, 0, 1
   335,  1,      2.11,      2.07,        13,        -9,    1.037, 0,     100, 0, 1, 0, 0, 1, 1, 100,        25,         0, 1, 1, 0, 1, 0, 1, 0, 1, 0, 1
   338,  1,      9.13,     -0.33,         5,        -6,    1.013, 0,     100, 0, 1, 0, 0, 1, 1, 100,        13,         0, 1, 1, 0, 1, 0, 1, 0, 1, 0, 1
   340,  1,         0,     -1.82,        10,       -10,    1.034, 0,     100, 0, 1, 0, 0, 1, 0, 100,        21,         0, 1, 1, 0, 1, 0, 1, 0, 1, 0, 1
   340,  2,         0,      -0.1,       0.1,      -0.1,    1.034, 0,     100, 0, 1, 0, 0, 1, 0, 100,         2,         0, 1, 1, 0, 1, 0, 1, 0, 1, 0, 1
   347,  1,         0,         0,         0,         0,    1.057, 0,     100, 0, 1, 0, 0, 1, 0, 100,       2.3,         0, 1, 1, 0, 1, 0, 1, 0, 1, 0, 1
   347,  2,     15.24,         0,         0,         0,    1.057, 0,     100, 0, 1, 0, 0, 1, 1, 100,      19.5,         0, 1, 1, 0, 1, 0, 1, 0, 1, 0, 1
   350,  1,         0,         0,         0,         0,    1.058, 0,     100, 0, 1, 0, 0, 1, 0, 100,        22,         0, 1, 1, 0, 1, 0, 1, 0, 1, 0, 1
   358,  2,         0,      1.84,        30,       -30,    1.027, 0,     100, 0, 1, 0, 0, 1, 0, 100,        30,         0, 1, 1, 0, 1, 0, 1, 0, 1, 0, 1
   359,  1,      1.97,         0,         0,         0,    1.001, 0,     100, 0, 1, 0, 0, 1, 1, 100,        12,         0, 1, 1, 0, 1, 0, 1, 0, 1, 0, 1
   359,  2,      2.97,         0,         0,         0,    1.001, 0,     100, 0, 1, 0, 0, 1, 1, 100,        12,         0, 1, 1, 0, 1, 0, 1, 0, 1, 0, 1
   366,  1,    127.22,      8.45,        59,       -26,    1.078, 0,     100, 0, 1, 0, 0, 1, 1, 100,       130,         0, 1, 1, 0, 1, 0, 1, 0, 1, 0, 1
   393,  2,         0,         0,         0,         0,    1.006, 0,     100, 0, 1, 0, 0, 1, 0, 100,       2.7,         0, 1, 1, 0, 1, 0, 1, 0, 1, 0, 1
   412,  1,       1.4,         0,         0,         0,    1.026, 0,     100, 0, 1, 0, 0, 1, 1, 100,        10,         0, 1, 1, 0, 1, 0, 1, 0, 1, 0, 1
   412,  2,       1.4,         0,         0,         0,    1.026, 0,     100, 0, 1, 0, 0, 1, 1, 100,      11.5,         0, 1, 1, 0, 1, 0, 1, 0, 1, 0, 1
   432,  1,         0,         0,         0,         0,    1.047, 0,     100, 0, 1, 0, 0, 1, 0, 100,        12,         0, 1, 1, 0, 1, 0, 1, 0, 1, 0, 1
   441,  2,         0,      1.33,     10.96,    -11.99,    1.023, 0,     100, 0, 1, 0, 0, 1, 0, 100,     34.25,         0, 1, 1, 0, 1, 0, 1, 0, 1, 0, 1
   448,  1,         0,      0.71,         8,        -9,    0.992, 0,     100, 0, 1, 0, 0, 1, 0, 100,        25,         0, 1, 1, 0, 1, 0, 1, 0, 1, 0, 1
   463,  1,         0,         0,         0,         0,    1.013, 0,     100, 0, 1, 0, 0, 1, 0, 100,       2.4,         0, 1, 1, 0, 1, 0, 1, 0, 1, 0, 1
   463,  2,      3.21,         0,         0,         0,    1.013, 0,     100, 0, 1, 0, 0, 1, 1, 100,        16,         0, 1, 1, 0, 1, 0, 1, 0, 1, 0, 1
   465,  1,      7.19,      0.74,         6,        -3,    1.171, 0,     100, 0, 1, 0, 0, 1, 1, 100,        27,         1, 1, 1, 0, 1, 0, 1, 0, 1, 0, 1
   465,  2,      7.19,      0.74,         6,        -3,    1.171, 0,     100, 0, 1, 0, 0, 1, 1, 100,        27,         1, 1, 1, 0, 1, 0, 1, 0, 1, 0, 1
   467,  1,     42.78,     10.85,        19,       -10,    1.042, 0,     100, 0, 1, 0, 0, 1, 1, 100,        48,         1, 1, 1, 0, 1, 0, 1, 0, 1, 0, 1
   471,  2,         0,     -2.86,         6,        -6,    1.035, 0,     100, 0, 1, 0, 0, 1, 0, 100,        10,         0, 1, 1, 0, 1, 0, 1, 0, 1, 0, 1
   471,  1,         0,      -5.4,       5.4,      -5.4,    1.035, 0,     100, 0, 1, 0, 0, 1, 0, 100,         9,         0, 1, 1, 0, 1, 0, 1, 0, 1, 0, 1
   480,  1,         0,     -2.66,        17,       -16,    0.982, 0,     100, 0, 1, 0, 0, 1, 0, 100,        27,         0, 1, 1, 0, 1, 0, 1, 0, 1, 0, 1
   480,  2,         0,     -2.66,        17,       -16,    0.982, 0,     100, 0, 1, 0, 0, 1, 0, 100,        27,         0, 1, 1, 0, 1, 0, 1, 0, 1, 0, 1
   480,  3,         0,     -2.66,        17,       -16,    0.982, 0,     100, 0, 1, 0, 0, 1, 0, 100,        27,         0, 1, 1, 0, 1, 0, 1, 0, 1, 0, 1
   492,  2,         0,     -0.74,         8,       -17,    1.055, 0,     100, 0, 1, 0, 0, 1, 0, 100,      23.4,         0, 1, 1, 0, 1, 0, 1, 0, 1, 0, 1
   509,  3,         0,      0.34,         2,        -2,    1.002, 0,     100, 0, 1, 0, 0, 1, 0, 100,         4,         0, 1, 1, 0, 1, 0, 1, 0, 1, 0, 1
   518,  1,         0,         0,         0,         0,        1, 0,     100, 0, 1, 0, 0, 1, 0, 100,        10,         0, 1, 1, 0, 1, 0, 1, 0, 1, 0, 1
   519,  1,      8.33,         0,         0,         0,    1.035, 0,     100, 0, 1, 0, 0, 1, 1, 100,        12,         0, 1, 1, 0, 1, 0, 1, 0, 1, 0, 1
   529,  1,         0,     -1.62,       4.8,      -4.8,    1.017, 0,     100, 0, 1, 0, 0, 1, 0, 100,         8,         0, 1, 1, 0, 1, 0, 1, 0, 1, 0, 1
   529,  2,         0,     -1.62,       4.8,      -4.8,    1.017, 0,     100, 0, 1, 0, 0, 1, 0, 100,         8,         0, 1, 1, 0, 1, 0, 1, 0, 1, 0, 1
   529,  3,      1.95,     -1.62,       4.8,      -4.8,    1.017, 0,     100, 0, 1, 0, 0, 1, 1, 100,         8,         0, 1, 1, 0, 1, 0, 1, 0, 1, 0, 1
   535,  2,      0.28,         0,         0,         0,    1.014, 0,     100, 0, 1, 0, 0, 1, 1, 100,        12,         0, 1, 1, 0, 1, 0, 1, 0, 1, 0, 1
   535,  3,      4.28,         0,         0,         0,    1.014, 0,     100, 0, 1, 0, 0, 1, 1, 100,        24,         0, 1, 1, 0, 1, 0, 1, 0, 1, 0, 1
   544,  1,      1.22,       1.9,         2,       1.9,        1, 0,     100, 0, 1, 0, 0, 1, 1, 100,         9,         0, 1, 1, 0, 1, 0, 1, 0, 1, 0, 1
   547,  2,         0,         0,         2,         0,    0.984, 0,     100, 0, 1, 0, 0, 1, 0, 100,        12,         0, 1, 1, 0, 1, 0, 1, 0, 1, 0, 1
   569,  1,      2.23,         0,         0,         0,    1.006, 0,     100, 0, 1, 0, 0, 1, 1, 100,        12,         0, 1, 1, 0, 1, 0, 1, 0, 1, 0, 1
   569,  2,     12.23,         0,         0,         0,    1.006, 0,     100, 0, 1, 0, 0, 1, 1, 100,        30,         0, 1, 1, 0, 1, 0, 1, 0, 1, 0, 1
   569,  3,      5.23,         0,         0,         0,    1.006, 0,     100, 0, 1, 0, 0, 1, 1, 100,      11.5,         0, 1, 1, 0, 1, 0, 1, 0, 1, 0, 1
   582,  2,      4.38,      2.76,         7,        -4,    1.029, 0,     100, 0, 1, 0, 0, 1, 1, 100,        16,         0, 1, 1, 0, 1, 0, 1, 0, 1, 0, 1
   584,  3,      0.16,         0,         0,         0,    0.993, 0,     100, 0, 1, 0, 0, 1, 1, 100,         9,         0, 1, 1, 0, 1, 0, 1, 0, 1, 0, 1
   585,  1,      1.04,       0.5,       5.7,      -5.7,     1.01, 0,     100, 0, 1, 0, 0, 1, 1, 100,       9.5,         0, 1, 1, 0, 1, 0, 1, 0, 1, 0, 1
   588,  1,         0,       0.1,       0.1,      -0.1,    1.029, 0,     100, 0, 1, 0, 0, 1, 0, 100,         1,         0, 1, 1, 0, 1, 0, 1, 0, 1, 0, 1
   592,  1,         0,      0.82,        10,       -10,    1.012, 0,     100, 0, 1, 0, 0, 1, 0, 100,        21,         0, 1, 1, 0, 1, 0, 1, 0, 1, 0, 1
   599,  1,         0,      0.03,         1,        -1,    1.026, 0,     100, 0, 1, 0, 0, 1, 0, 100,       6.1,         0, 1, 1, 0, 1, 0, 1, 0, 1, 0, 1
   609,  1,     41.38,     -4.32,        45,       -45,     1.02, 0,     100, 0, 1, 0, 0, 1, 1, 100,        45,         0, 1, 1, 0, 1, 0, 1, 0, 1, 0, 1
   609,  2,         0,     -1.04,        45,       -45,     1.02, 0,     100, 0, 1, 0, 0, 1, 0, 100,        45,         0, 1, 1, 0, 1, 0, 1, 0, 1, 0, 1
   611,  1,      3.39,         0,         0,         0,     1.01, 0,     100, 0, 1, 0, 0, 1, 1, 100,        12,         0, 1, 1, 0, 1, 0, 1, 0, 1, 0, 1
   611,  2,      3.39,         0,         0,         0,     1.01, 0,     100, 0, 1, 0, 0, 1, 1, 100,        12,         0, 1, 1, 0, 1, 0, 1, 0, 1, 0, 1
   611,  3,      3.39,         0,         0,         0,     1.01, 0,     100, 0, 1, 0, 0, 1, 1, 100,        12,         0, 1, 1, 0, 1, 0, 1, 0, 1, 0, 1
   612,  2,      2.14,         0,         0,         0,    1.012, 0,     100, 0, 1, 0, 0, 1, 1, 100,        35,         0, 1, 1, 0, 1, 0, 1, 0, 1, 0, 1
   612,  3,         0,         0,         0,         0,    1.012, 0,     100, 0, 1, 0, 0, 1, 0, 100,      11.5,         0, 1, 1, 0, 1, 0, 1, 0, 1, 0, 1
   623,  1,     -2.11,      -8.3,       8.3,      -8.3,    1.049, 0,     100, 0, 1, 0, 0, 1, 1, 100,       8.3,      -8.3, 1, 1, 0, 1, 0, 1, 0, 1, 0, 1
   632,  2,         0,      2.76,         4,        -4,    1.026, 0,     100, 0, 1, 0, 0, 1, 0, 100,       7.3,         0, 1, 1, 0, 1, 0, 1, 0, 1, 0, 1
   635,  1,         0,      0.91,         7,         0,    1.011, 0,     100, 0, 1, 0, 0, 1, 0, 100,        15,         0, 1, 1, 0, 1, 0, 1, 0, 1, 0, 1
   635,  2,      4.02,      4.91,         7,         0,    1.011, 0,     100, 0, 1, 0, 0, 1, 1, 100,        15,         0, 1, 1, 0, 1, 0, 1, 0, 1, 0, 1
   640,  1,     94.82,   -101.18,        80,    -102.8,    1.083, 0,     100, 0, 1, 0, 0, 1, 1, 100,       239,         0, 1, 1, 0, 1, 0, 1, 0, 1, 0, 1
   651,  2,         0,      1.38,         7,         0,    1.064, 0,     100, 0, 1, 0, 0, 1, 0, 100,         7,         0, 1, 1, 0, 1, 0, 1, 0, 1, 0, 1
   669,  1,      3.19,         0,         0,         0,    1.033, 0,     100, 0, 1, 0, 0, 1, 1, 100,        12,         0, 1, 1, 0, 1, 0, 1, 0, 1, 0, 1
   669,  2,      3.19,         0,         0,         0,    1.033, 0,     100, 0, 1, 0, 0, 1, 1, 100,        12,         0, 1, 1, 0, 1, 0, 1, 0, 1, 0, 1
   670,  1,      3.25,         0,         0,         0,    1.053, 0,     100, 0, 1, 0, 0, 1, 1, 100,       7.5,         0, 1, 1, 0, 1, 0, 1, 0, 1, 0, 1
   670,  2,     14.25,         0,         0,         0,    1.053, 0,     100, 0, 1, 0, 0, 1, 1, 100,        24,         0, 1, 1, 0, 1, 0, 1, 0, 1, 0, 1
   678,  1,         0,         0,         0,         0,    1.011, 0,     100, 0, 1, 0, 0, 1, 0, 100,       6.6,         0, 1, 1, 0, 1, 0, 1, 0, 1, 0, 1
   679,  2,      0.12,         0,         0,         0,    1.059, 0,     100, 0, 1, 0, 0, 1, 1, 100,        12,         0, 1, 1, 0, 1, 0, 1, 0, 1, 0, 1
...